/*--------------------------------*- C++ -*----------------------------------*\
| =========                 |                                                 |
| \\      /  F ield         | OpenFOAM: The Open Source CFD Toolbox           |
|  \\    /   O peration     | Version:  2.3.0                                 |
|   \\  /    A nd           | Web:      www.OpenFOAM.org                      |
|    \\/     M anipulation  |                                                 |
\*---------------------------------------------------------------------------*/
FoamFile
{
    version     2.0;
    format      ascii;
    class       dictionary;
    location    "system";
    object      setFieldsDict;
}
// * * * * * * * * * * * * * * * * * * * * * * * * * * * * * * * * * * * * * //

defaultFieldValues ( volVectorFieldValue U ( 0 0 0 ) volScalarFieldValue T 100 volScalarFieldValue p 10000 );

regions         ( boxToCell { box ( 5 -1 -5 ) ( 12 5 5 ) ; fieldValues ( volScalarFieldValue T 100 volScalarFieldValue p 1600 ) ; } );


// ************************************************************************* //
